<?xml version="1.0" encoding="UTF-8"?>

<!-- generated on 2022-10-04 10:06:41 by Eclipse SUMO netedit Version 1.14.0
<configuration xmlns:xsi="http://www.w3.org/2001/XMLSchema-instance" xsi:noNamespaceSchemaLocation="http://sumo.dlr.de/xsd/netconvertConfiguration.xsd">

    <input>
        <sumo-net-file value="F:\Eclipse\Sumo\doc\tutorial\public_transport\data\net.net.xml"/>
    </input>

    <output>
        <output-file value="F:\Eclipse\Sumo\doc\tutorial\public_transport\data\net.net.xml"/>
    </output>

    <processing>
        <geometry.min-radius.fix.railways value="false"/>
        <geometry.max-grade.fix value="false"/>
        <offset.disable-normalization value="true"/>
        <lefthand value="false"/>
    </processing>

    <junctions>
        <no-turnarounds value="true"/>
        <junctions.corner-detail value="0"/>
        <junctions.limit-turn-speed value="-1"/>
        <rectangular-lane-cut value="false"/>
    </junctions>

    <pedestrian>
        <walkingareas value="false"/>
    </pedestrian>

</configuration>
-->

<net version="1.9" xmlns:xsi="http://www.w3.org/2001/XMLSchema-instance" xsi:noNamespaceSchemaLocation="http://sumo.dlr.de/xsd/net_file.xsd">

    <location netOffset="-659759.79,-5417192.74" convBoundary="113.34,307.42,538.26,794.08" origBoundary="11.163169,48.874316,11.222049,48.900797" projParameter="+proj=utm +zone=32 +ellps=WGS84 +datum=WGS84 +units=m +no_defs"/>

    <type id="highway.bridleway" priority="1" numLanes="1" speed="2.78" allow="pedestrian" oneway="1" width="2.00"/>
    <type id="highway.bus_guideway" priority="1" numLanes="1" speed="8.33" allow="bus" oneway="1"/>
    <type id="highway.cycleway" priority="1" numLanes="1" speed="5.56" allow="bicycle" oneway="0" width="1.00"/>
    <type id="highway.footway" priority="1" numLanes="1" speed="2.78" allow="pedestrian" oneway="1" width="2.00"/>
    <type id="highway.ford" priority="1" numLanes="1" speed="2.78" allow="army" oneway="0"/>
    <type id="highway.living_street" priority="3" numLanes="1" speed="2.78" disallow="tram rail_urban rail rail_electric ship" oneway="0"/>
    <type id="highway.motorway" priority="13" numLanes="2" speed="44.44" allow="private emergency authority army vip passenger hov taxi bus coach delivery truck trailer motorcycle evehicle custom1 custom2" oneway="1"/>
    <type id="highway.motorway_link" priority="12" numLanes="1" speed="22.22" allow="private emergency authority army vip passenger hov taxi bus coach delivery truck trailer motorcycle evehicle custom1 custom2" oneway="1"/>
    <type id="highway.path" priority="1" numLanes="1" speed="2.78" allow="pedestrian bicycle" oneway="1" width="2.00"/>
    <type id="highway.pedestrian" priority="1" numLanes="1" speed="2.78" allow="pedestrian" oneway="1" width="2.00"/>
    <type id="highway.primary" priority="9" numLanes="2" speed="27.78" disallow="tram rail_urban rail rail_electric ship" oneway="0"/>
    <type id="highway.primary_link" priority="8" numLanes="1" speed="22.22" disallow="tram rail_urban rail rail_electric ship" oneway="0"/>
    <type id="highway.raceway" priority="14" numLanes="2" speed="83.33" allow="vip" oneway="0"/>
    <type id="highway.residential" priority="4" numLanes="1" speed="13.89" disallow="tram rail_urban rail rail_electric ship" oneway="0"/>
    <type id="highway.secondary" priority="7" numLanes="2" speed="27.78" disallow="tram rail_urban rail rail_electric ship" oneway="0"/>
    <type id="highway.secondary_link" priority="6" numLanes="1" speed="22.22" disallow="tram rail_urban rail rail_electric ship" oneway="0"/>
    <type id="highway.service" priority="2" numLanes="1" speed="5.56" allow="pedestrian delivery bicycle" oneway="0"/>
    <type id="highway.services" priority="1" numLanes="1" speed="8.33" disallow="tram rail_urban rail rail_electric ship" oneway="0"/>
    <type id="highway.stairs" priority="1" numLanes="1" speed="1.39" allow="pedestrian" oneway="1" width="2.00"/>
    <type id="highway.step" priority="1" numLanes="1" speed="1.39" allow="pedestrian" oneway="1" width="2.00"/>
    <type id="highway.steps" priority="1" numLanes="1" speed="1.39" allow="pedestrian" oneway="1" width="2.00"/>
    <type id="highway.tertiary" priority="6" numLanes="1" speed="22.22" disallow="tram rail_urban rail rail_electric ship" oneway="0"/>
    <type id="highway.tertiary_link" priority="5" numLanes="1" speed="22.22" disallow="tram rail_urban rail rail_electric ship" oneway="0"/>
    <type id="highway.track" priority="1" numLanes="1" speed="5.56" disallow="tram rail_urban rail rail_electric ship" oneway="0"/>
    <type id="highway.trunk" priority="11" numLanes="2" speed="27.78" disallow="pedestrian bicycle tram rail_urban rail rail_electric ship" oneway="0"/>
    <type id="highway.trunk_link" priority="10" numLanes="1" speed="22.22" disallow="pedestrian bicycle tram rail_urban rail rail_electric ship" oneway="0"/>
    <type id="highway.unclassified" priority="5" numLanes="1" speed="13.89" disallow="tram rail_urban rail rail_electric ship" oneway="0"/>
    <type id="highway.unsurfaced" priority="1" numLanes="1" speed="8.33" disallow="tram rail_urban rail rail_electric ship" oneway="0"/>
    <type id="railway.light_rail" priority="15" numLanes="1" speed="27.78" allow="rail_urban" oneway="1"/>
    <type id="railway.preserved" priority="15" numLanes="1" speed="27.78" allow="rail" oneway="1"/>
    <type id="railway.rail" priority="15" numLanes="1" speed="83.33" allow="rail rail_electric" oneway="1"/>
    <type id="railway.subway" priority="15" numLanes="1" speed="27.78" allow="rail_urban" oneway="1"/>
    <type id="railway.tram" priority="15" numLanes="1" speed="13.89" allow="tram" oneway="1"/>

    <edge id=":1487644637_0" function="internal">
        <lane id=":1487644637_0_0" index="0" disallow="pedestrian tram rail_urban rail rail_electric rail_fast ship" speed="1.39" length="10.40" shape="428.32,548.91 426.18,550.04 424.63,551.80 423.67,554.20 423.28,557.23"/>
    </edge>
    <edge id=":1487644637_1" function="internal">
        <lane id=":1487644637_1_0" index="0" disallow="pedestrian tram rail_urban rail rail_electric rail_fast ship" speed="1.39" length="14.29" shape="428.32,548.91 424.84,549.98 421.44,550.83 418.00,551.52 414.41,552.10"/>
    </edge>
    <edge id=":1487644637_2" function="internal">
        <lane id=":1487644637_2_0" index="0" disallow="pedestrian tram rail_urban rail rail_electric rail_fast ship" speed="1.39" length="1.29" shape="428.32,548.91 427.07,548.57"/>
    </edge>
    <edge id=":1487644637_8" function="internal">
        <lane id=":1487644637_8_0" index="0" disallow="pedestrian tram rail_urban rail rail_electric rail_fast ship" speed="1.39" length="3.38" shape="427.07,548.57 426.93,548.53 426.29,547.90 426.41,547.02 427.30,545.87"/>
    </edge>
    <edge id=":1487644637_3" function="internal">
        <lane id=":1487644637_3_0" index="0" disallow="pedestrian tram rail_urban rail rail_electric rail_fast ship" speed="1.39" length="13.72" shape="413.94,548.93 417.45,548.37 420.70,547.73 423.91,546.92 427.30,545.87"/>
    </edge>
    <edge id=":1487644637_4" function="internal">
        <lane id=":1487644637_4_0" index="0" disallow="pedestrian tram rail_urban rail rail_electric rail_fast ship" speed="1.39" length="14.90" shape="413.94,548.93 418.13,548.92 421.08,550.30 422.80,553.07 423.28,557.23"/>
    </edge>
    <edge id=":1487644637_5" function="internal">
        <lane id=":1487644637_5_0" index="0" disallow="pedestrian tram rail_urban rail rail_electric rail_fast ship" speed="1.39" length="9.05" shape="420.09,557.14 419.79,554.61 418.75,552.93 416.95,552.09 414.41,552.10"/>
    </edge>
    <edge id=":1487644637_6" function="internal">
        <lane id=":1487644637_6_0" index="0" disallow="pedestrian tram rail_urban rail rail_electric rail_fast ship" speed="1.39" length="14.32" shape="420.09,557.14 420.63,553.09 422.01,549.86 424.23,547.46 427.30,545.87"/>
    </edge>
    <edge id=":1487644637_7" function="internal">
        <lane id=":1487644637_7_0" index="0" disallow="pedestrian tram rail_urban rail rail_electric rail_fast ship" speed="1.39" length="1.44" shape="420.09,557.14 420.92,555.97"/>
    </edge>
    <edge id=":1487644637_9" function="internal">
        <lane id=":1487644637_9_0" index="0" disallow="pedestrian tram rail_urban rail rail_electric rail_fast ship" speed="1.39" length="3.23" shape="420.92,555.97 421.73,555.59 422.52,556.01 423.28,557.23"/>
    </edge>
    <edge id=":1487644639_0" function="internal">
        <lane id=":1487644639_0_0" index="0" disallow="tram rail_urban rail rail_electric rail_fast ship" speed="1.39" length="9.79" shape="381.49,556.94 378.78,557.68 376.83,558.97 375.65,560.82 375.24,563.23"/>
    </edge>
    <edge id=":1487644639_1" function="internal">
        <lane id=":1487644639_1_0" index="0" disallow="tram rail_urban rail rail_electric rail_fast ship" speed="1.39" length="14.70" shape="381.49,556.94 377.39,556.96 374.43,555.61 372.63,552.92 371.97,548.86"/>
    </edge>
    <edge id=":1487644639_2" function="internal">
        <lane id=":1487644639_2_0" index="0" disallow="tram rail_urban rail rail_electric rail_fast ship" speed="1.39" length="9.05" shape="375.17,548.81 375.57,551.30 376.68,552.96 378.50,553.79 381.03,553.78"/>
    </edge>
    <edge id=":1487644639_3" function="internal">
        <lane id=":1487644639_3_0" index="0" disallow="tram rail_urban rail rail_electric rail_fast ship" speed="1.39" length="14.42" shape="375.17,548.81 375.24,563.23"/>
    </edge>
    <edge id=":1487644639_4" function="internal">
        <lane id=":1487644639_4_0" index="0" disallow="tram rail_urban rail rail_electric rail_fast ship" speed="1.39" length="4.67" shape="375.17,548.81 374.39,550.02 373.60,550.43 372.79,550.05 371.97,548.86"/>
    </edge>
    <edge id=":1487644639_5" function="internal">
        <lane id=":1487644639_5_0" index="0" disallow="tram rail_urban rail rail_electric rail_fast ship" speed="1.39" length="14.33" shape="372.04,563.20 371.97,548.86"/>
    </edge>
    <edge id=":1487644639_6" function="internal">
        <lane id=":1487644639_6_0" index="0" disallow="tram rail_urban rail rail_electric rail_fast ship" speed="1.39" length="14.39" shape="372.04,563.20 372.63,559.57 374.32,556.79 377.12,554.86 381.03,553.78"/>
    </edge>
    <edge id=":1487644639_7" function="internal">
        <lane id=":1487644639_7_0" index="0" disallow="tram rail_urban rail rail_electric rail_fast ship" speed="1.39" length="4.67" shape="372.04,563.20 372.85,562.01 373.65,561.61 374.45,562.02 375.24,563.23"/>
    </edge>
    <edge id=":1489962841_0" function="internal">
        <lane id=":1489962841_0_0" index="0" disallow="pedestrian tram rail_urban rail rail_electric rail_fast ship" speed="1.39" length="2.44" shape="322.36,567.68 322.04,567.10 321.61,566.74 321.07,566.61 320.41,566.71"/>
    </edge>
    <edge id=":1489962841_1" function="internal">
        <lane id=":1489962841_1_0" index="0" disallow="pedestrian tram rail_urban rail rail_electric rail_fast ship" speed="1.39" length="1.30" shape="322.36,567.68 322.65,566.41"/>
    </edge>
    <edge id=":1489962841_4" function="internal">
        <lane id=":1489962841_4_0" index="0" disallow="pedestrian tram rail_urban rail rail_electric rail_fast ship" speed="1.39" length="3.37" shape="322.65,566.41 322.69,566.28 323.29,565.62 324.18,565.71 325.35,566.55"/>
    </edge>
    <edge id=":1489962841_2" function="internal">
        <lane id=":1489962841_2_0" index="0" disallow="pedestrian tram rail_urban rail rail_electric rail_fast ship" speed="1.39" length="7.33" shape="319.51,563.64 321.48,563.35 323.11,563.74 324.40,564.81 325.35,566.55"/>
    </edge>
    <edge id=":1489962841_3" function="internal">
        <lane id=":1489962841_3_0" index="0" disallow="pedestrian tram rail_urban rail rail_electric rail_fast ship" speed="1.39" length="1.44" shape="319.51,563.64 320.89,564.07"/>
    </edge>
    <edge id=":1489962841_5" function="internal">
        <lane id=":1489962841_5_0" index="0" disallow="pedestrian tram rail_urban rail rail_electric rail_fast ship" speed="1.39" length="3.23" shape="320.89,564.07 321.50,564.73 321.34,565.61 320.41,566.71"/>
    </edge>
    <edge id=":1492009060_0" function="internal">
        <lane id=":1492009060_0_0" index="0" disallow="tram rail_urban rail rail_electric rail_fast ship" speed="1.39" length="14.64" shape="344.52,772.14 332.43,780.38"/>
    </edge>
    <edge id=":1492009060_1" function="internal">
        <lane id=":1492009060_1_0" index="0" disallow="tram rail_urban rail rail_electric rail_fast ship" speed="1.39" length="4.20" shape="344.52,772.14 341.10,773.91 340.76,773.93"/>
    </edge>
    <edge id=":1492009060_2" function="internal">
        <lane id=":1492009060_2_0" index="0" disallow="tram rail_urban rail rail_electric rail_fast ship" speed="1.39" length="1.44" shape="344.52,772.14 343.08,772.19"/>
    </edge>
    <edge id=":1492009060_8" function="internal">
        <lane id=":1492009060_8_0" index="0" disallow="tram rail_urban rail rail_electric rail_fast ship" speed="1.39" length="10.16" shape="340.76,773.93 337.87,774.15 334.86,772.85 332.05,770.02"/>
    </edge>
    <edge id=":1492009060_9" function="internal">
        <lane id=":1492009060_9_0" index="0" disallow="tram rail_urban rail rail_electric rail_fast ship" speed="1.39" length="3.23" shape="343.08,772.19 342.29,771.77 342.15,770.89 342.65,769.54"/>
    </edge>
    <edge id=":1492009060_3" function="internal">
        <lane id=":1492009060_3_0" index="0" disallow="tram rail_urban rail rail_electric rail_fast ship" speed="1.39" length="9.28" shape="334.60,768.10 336.43,769.95 338.38,770.80 340.46,770.67 342.65,769.54"/>
    </edge>
    <edge id=":1492009060_4" function="internal">
        <lane id=":1492009060_4_0" index="0" disallow="tram rail_urban rail rail_electric rail_fast ship" speed="1.39" length="14.47" shape="334.60,768.10 336.53,771.61 336.81,774.83 335.44,777.75 332.43,780.38"/>
    </edge>
    <edge id=":1492009060_5" function="internal">
        <lane id=":1492009060_5_0" index="0" disallow="tram rail_urban rail rail_electric rail_fast ship" speed="1.39" length="9.04" shape="330.69,777.70 332.57,776.05 333.43,774.23 333.25,772.22 332.05,770.02"/>
    </edge>
    <edge id=":1492009060_6" function="internal">
        <lane id=":1492009060_6_0" index="0" disallow="tram rail_urban rail rail_electric rail_fast ship" speed="1.39" length="14.48" shape="330.69,777.70 342.65,769.54"/>
    </edge>
    <edge id=":1492009060_7" function="internal">
        <lane id=":1492009060_7_0" index="0" disallow="tram rail_urban rail rail_electric rail_fast ship" speed="1.39" length="1.44" shape="330.69,777.70 332.13,777.72"/>
    </edge>
    <edge id=":1492009060_10" function="internal">
        <lane id=":1492009060_10_0" index="0" disallow="tram rail_urban rail rail_electric rail_fast ship" speed="1.39" length="3.23" shape="332.13,777.72 332.90,778.17 333.00,779.06 332.43,780.38"/>
    </edge>
    <edge id=":1492009066_0" function="internal">
        <lane id=":1492009066_0_0" index="0" disallow="tram rail_urban rail rail_electric rail_fast ship" speed="1.39" length="9.16" shape="317.91,751.25 316.12,749.45 314.19,748.64 312.14,748.81 309.95,749.96"/>
    </edge>
    <edge id=":1492009066_1" function="internal">
        <lane id=":1492009066_1_0" index="0" speed="1.39" length="14.34" shape="317.91,751.25 316.01,747.80 315.71,744.59 317.02,741.65 319.93,738.97"/>
    </edge>
    <edge id=":1492009066_2" function="internal">
        <lane id=":1492009066_2_0" index="0" disallow="tram rail_urban rail rail_electric rail_fast ship" speed="1.39" length="9.05" shape="321.71,741.56 319.89,743.26 319.07,745.13 319.27,747.15 320.47,749.33"/>
    </edge>
    <edge id=":1492009066_3" function="internal">
        <lane id=":1492009066_3_0" index="0" disallow="tram rail_urban rail rail_electric rail_fast ship" speed="1.39" length="14.45" shape="321.71,741.56 309.95,749.96"/>
    </edge>
    <edge id=":1492009066_4" function="internal">
        <lane id=":1492009066_4_0" index="0" speed="1.39" length="14.54" shape="308.09,747.40 319.93,738.97"/>
    </edge>
    <edge id=":1492009066_5" function="internal">
        <lane id=":1492009066_5_0" index="0" speed="1.39" length="4.08" shape="308.09,747.40 311.49,745.58 311.70,745.56"/>
    </edge>
    <edge id=":1492009066_6" function="internal">
        <lane id=":1492009066_6_0" index="0" speed="1.39" length="10.18" shape="311.70,745.56 314.69,745.29 317.68,746.54 320.47,749.33"/>
    </edge>
    <edge id=":1492898193_0" function="internal">
        <lane id=":1492898193_0_0" index="0" speed="1.39" length="14.69" shape="406.30,425.18 404.11,421.90 401.52,419.33 398.53,417.48 395.13,416.35"/>
    </edge>
    <edge id=":1492898193_1" function="internal">
        <lane id=":1492898193_1_0" index="0" disallow="pedestrian tram rail_urban rail rail_electric rail_fast ship" speed="1.39" length="17.51" shape="406.30,425.18 404.57,421.41 403.07,417.04 401.99,412.55 401.51,408.44"/>
    </edge>
    <edge id=":1492898193_2" function="internal">
        <lane id=":1492898193_2_0" index="0" disallow="pedestrian tram rail_urban rail rail_electric rail_fast ship" speed="1.39" length="16.23" shape="406.30,425.18 404.60,420.70 405.04,417.40 407.60,415.28 412.29,414.32"/>
    </edge>
    <edge id=":1492898193_3" function="internal">
        <lane id=":1492898193_3_0" index="0" disallow="pedestrian tram rail_urban rail rail_electric rail_fast ship" speed="1.39" length="9.16" shape="412.49,417.52 409.84,418.06 408.40,419.26 408.15,421.12 409.11,423.65"/>
    </edge>
    <edge id=":1492898193_4" function="internal">
        <lane id=":1492898193_4_0" index="0" disallow="pedestrian tram rail_urban rail rail_electric rail_fast ship" speed="1.39" length="17.44" shape="412.49,417.52 408.36,417.62 403.77,417.45 399.20,417.02 395.13,416.35"/>
    </edge>
    <edge id=":1492898193_5" function="internal">
        <lane id=":1492898193_5_0" index="0" disallow="pedestrian tram rail_urban rail rail_electric rail_fast ship" speed="1.39" length="15.42" shape="412.49,417.52 408.80,416.89 405.29,414.87 402.63,411.91 401.51,408.44"/>
    </edge>
    <edge id=":1492898193_6" function="internal">
        <lane id=":1492898193_6_0" index="0" disallow="pedestrian tram rail_urban rail rail_electric rail_fast ship" speed="1.39" length="4.67" shape="412.49,417.52 411.24,416.80 410.79,416.02 411.14,415.20 412.29,414.32"/>
    </edge>
    <edge id=":1492898193_7" function="internal">
        <lane id=":1492898193_7_0" index="0" disallow="pedestrian tram rail_urban rail rail_electric rail_fast ship" speed="1.39" length="11.08" shape="404.71,408.33 405.27,411.13 406.72,413.06 409.06,414.12 412.29,414.32"/>
    </edge>
    <edge id=":1492898193_8" function="internal">
        <lane id=":1492898193_8_0" index="0" disallow="pedestrian tram rail_urban rail rail_electric rail_fast ship" speed="1.39" length="16.05" shape="404.71,408.33 405.13,412.22 406.08,416.22 407.44,420.10 409.11,423.65"/>
    </edge>
    <edge id=":1492898193_9" function="internal">
        <lane id=":1492898193_9_0" index="0" disallow="pedestrian tram rail_urban rail rail_electric rail_fast ship" speed="1.39" length="15.23" shape="404.71,408.33 404.24,412.64 402.49,415.41 399.45,416.65 395.13,416.35"/>
    </edge>
    <edge id=":1492898193_10" function="internal">
        <lane id=":1492898193_10_0" index="0" disallow="pedestrian tram rail_urban rail rail_electric rail_fast ship" speed="1.39" length="4.67" shape="404.71,408.33 403.95,409.56 403.16,409.99 402.35,409.62 401.51,408.44"/>
    </edge>
    <edge id=":1492898193_11" function="internal">
        <lane id=":1492898193_11_0" index="0" disallow="pedestrian tram rail_urban rail rail_electric rail_fast ship" speed="1.39" length="9.07" shape="395.80,413.22 398.38,413.40 400.19,412.66 401.23,411.01 401.51,408.44"/>
    </edge>
    <edge id=":1492898193_12" function="internal">
        <lane id=":1492898193_12_0" index="0" disallow="pedestrian tram rail_urban rail rail_electric rail_fast ship" speed="1.39" length="16.57" shape="395.80,413.22 399.74,413.88 404.01,414.29 408.30,414.43 412.29,414.32"/>
    </edge>
    <edge id=":1492898193_13" function="internal">
        <lane id=":1492898193_13_0" index="0" speed="1.39" length="17.23" shape="395.80,413.22 399.38,414.64 403.20,417.18 406.65,420.34 409.11,423.65"/>
    </edge>
    <edge id=":1501772565_0" function="internal">
        <lane id=":1501772565_0_0" index="0" speed="1.39" length="0.29" shape="239.62,665.57 239.52,665.30"/>
    </edge>
    <edge id=":1501772565_1" function="internal">
        <lane id=":1501772565_1_0" index="0" speed="1.39" length="0.31" shape="242.52,664.18 242.62,664.47"/>
    </edge>
    <edge id=":1508663398_0" function="internal">
        <lane id=":1508663398_0_0" index="0" disallow="tram rail_urban rail rail_electric rail_fast ship" speed="1.39" length="0.25" shape="375.84,396.61 375.82,396.36"/>
    </edge>
    <edge id=":1508663398_1" function="internal">
        <lane id=":1508663398_1_0" index="0" disallow="tram rail_urban rail rail_electric rail_fast ship" speed="1.39" length="2.34" shape="375.84,396.61 376.51,395.33 377.27,394.85"/>
    </edge>
    <edge id=":1508663398_4" function="internal">
        <lane id=":1508663398_4_0" index="0" disallow="tram rail_urban rail rail_electric rail_fast ship" speed="1.39" length="2.34" shape="377.27,394.85 378.10,395.16 379.03,396.27"/>
    </edge>
    <edge id=":1508663398_2" function="internal">
        <lane id=":1508663398_2_0" index="0" disallow="tram rail_urban rail rail_electric rail_fast ship" speed="1.39" length="0.31" shape="378.99,395.96 379.03,396.27"/>
    </edge>
    <edge id=":1508663398_3" function="internal">
        <lane id=":1508663398_3_0" index="0" disallow="tram rail_urban rail rail_electric rail_fast ship" speed="1.39" length="2.34" shape="378.99,395.96 378.35,397.25 377.60,397.75"/>
    </edge>
    <edge id=":1508663398_5" function="internal">
        <lane id=":1508663398_5_0" index="0" disallow="tram rail_urban rail rail_electric rail_fast ship" speed="1.39" length="2.34" shape="377.60,397.75 376.76,397.45 375.82,396.36"/>
    </edge>
    <edge id=":1508727148_0" function="internal">
        <lane id=":1508727148_0_0" index="0" disallow="tram rail_urban rail rail_electric rail_fast ship" speed="1.39" length="1.83" shape="367.48,489.19 367.43,488.65 367.43,488.28 367.50,487.91 367.64,487.39"/>
    </edge>
    <edge id=":1508727148_1" function="internal">
        <lane id=":1508727148_1_0" index="0" disallow="tram rail_urban rail rail_electric rail_fast ship" speed="1.39" length="4.67" shape="367.48,489.19 368.16,487.92 368.91,487.44 369.75,487.76 370.66,488.87"/>
    </edge>
    <edge id=":1508727148_2" function="internal">
        <lane id=":1508727148_2_0" index="0" disallow="tram rail_urban rail rail_electric rail_fast ship" speed="1.39" length="0.61" shape="370.72,488.27 370.67,488.44 370.65,488.57 370.65,488.69 370.66,488.87"/>
    </edge>
    <edge id=":1562863506_0" function="internal">
        <lane id=":1562863506_0_0" index="0" speed="1.39" length="8.76" shape="309.49,705.96 307.13,706.41 305.39,707.46 304.25,709.11 303.73,711.36"/>
    </edge>
    <edge id=":1562863506_1" function="internal">
        <lane id=":1562863506_1_0" index="0" speed="1.39" length="13.50" shape="309.49,705.96 305.84,705.65 303.08,704.27 301.23,701.81 300.27,698.27"/>
    </edge>
    <edge id=":1562863506_2" function="internal">
        <lane id=":1562863506_2_0" index="0" speed="1.39" length="8.59" shape="303.44,697.87 304.05,700.12 305.24,701.69 306.99,702.57 309.31,702.77"/>
    </edge>
    <edge id=":1562863506_3" function="internal">
        <lane id=":1562863506_3_0" index="0" speed="1.39" length="13.52" shape="303.44,697.87 303.81,701.37 303.98,704.61 303.95,707.85 303.73,711.36"/>
    </edge>
    <edge id=":1562863506_4" function="internal">
        <lane id=":1562863506_4_0" index="0" speed="1.39" length="12.85" shape="300.54,711.09 300.76,707.68 300.80,704.67 300.63,701.66 300.27,698.27"/>
    </edge>
    <edge id=":1562863506_5" function="internal">
        <lane id=":1562863506_5_0" index="0" speed="1.39" length="3.70" shape="300.54,711.09 301.34,707.62 301.42,707.51"/>
    </edge>
    <edge id=":1562863506_6" function="internal">
        <lane id=":1562863506_6_0" index="0" speed="1.39" length="9.70" shape="301.42,707.51 303.07,705.07 305.73,703.46 309.31,702.77"/>
    </edge>
    <edge id=":1657596962_0" function="internal">
        <lane id=":1657596962_0_0" index="0" speed="1.39" length="1.74" shape="335.45,704.20 334.98,704.40 334.64,704.51 334.29,704.57 333.77,704.60"/>
    </edge>
    <edge id=":1657596962_1" function="internal">
        <lane id=":1657596962_1_0" index="0" speed="1.39" length="0.58" shape="333.59,701.41 333.77,701.39 333.88,701.38 334.00,701.34 334.15,701.27"/>
    </edge>
    <edge id=":1864233754_0" function="internal">
        <lane id=":1864233754_0_0" index="0" disallow="pedestrian tram rail_urban rail rail_electric rail_fast ship" speed="1.39" length="9.41" shape="284.74,612.20 283.82,608.79 282.73,606.43 281.47,605.12 280.03,604.86"/>
    </edge>
    <edge id=":1864233754_1" function="internal">
        <lane id=":1864233754_1_0" index="0" disallow="tram rail_urban rail rail_electric rail_fast ship" speed="1.39" length="11.46" shape="284.74,612.20 284.42,608.87 285.02,606.18 286.52,604.11 288.92,602.67"/>
    </edge>
    <edge id=":1864233754_2" function="internal">
        <lane id=":1864233754_2_0" index="0" disallow="tram rail_urban rail rail_electric rail_fast ship" speed="1.39" length="1.44" shape="284.74,612.20 285.27,610.86"/>
    </edge>
    <edge id=":1864233754_9" function="internal">
        <lane id=":1864233754_9_0" index="0" disallow="tram rail_urban rail rail_electric rail_fast ship" speed="1.39" length="3.23" shape="285.27,610.86 285.97,610.30 286.84,610.53 287.87,611.54"/>
    </edge>
    <edge id=":1864233754_3" function="internal">
        <lane id=":1864233754_3_0" index="0" disallow="tram rail_urban rail rail_electric rail_fast ship" speed="1.39" length="6.91" shape="290.09,605.65 288.75,606.49 287.94,607.75 287.64,609.44 287.87,611.54"/>
    </edge>
    <edge id=":1864233754_4" function="internal">
        <lane id=":1864233754_4_0" index="0" disallow="pedestrian tram rail_urban rail rail_electric rail_fast ship" speed="1.39" length="2.05" shape="290.09,605.65 288.07,606.03"/>
    </edge>
    <edge id=":1864233754_5" function="internal">
        <lane id=":1864233754_5_0" index="0" disallow="tram rail_urban rail rail_electric rail_fast ship" speed="1.39" length="1.28" shape="290.09,605.65 288.83,605.38"/>
    </edge>
    <edge id=":1864233754_10" function="internal">
        <lane id=":1864233754_10_0" index="0" disallow="pedestrian tram rail_urban rail rail_electric rail_fast ship" speed="1.39" length="8.25" shape="288.07,606.03 287.25,606.18 285.16,605.63 283.03,604.89 280.03,604.86"/>
    </edge>
    <edge id=":1864233754_11" function="internal">
        <lane id=":1864233754_11_0" index="0" disallow="tram rail_urban rail rail_electric rail_fast ship" speed="1.39" length="3.39" shape="288.83,605.38 288.68,605.35 288.02,604.75 288.10,603.86 288.92,602.67"/>
    </edge>
    <edge id=":1864233754_6" function="internal">
        <lane id=":1864233754_6_0" index="0" disallow="pedestrian tram rail_urban rail rail_electric rail_fast ship" speed="1.39" length="7.53" shape="281.70,601.95 283.47,602.81 285.26,603.22 287.08,603.17 288.92,602.67"/>
    </edge>
    <edge id=":1864233754_7" function="internal">
        <lane id=":1864233754_7_0" index="0" disallow="pedestrian tram rail_urban rail rail_electric rail_fast ship" speed="1.39" length="11.72" shape="281.70,601.95 283.88,603.66 285.63,605.83 286.96,608.46 287.87,611.54"/>
    </edge>
    <edge id=":1864233754_8" function="internal">
        <lane id=":1864233754_8_0" index="0" disallow="pedestrian tram rail_urban rail rail_electric rail_fast ship" speed="1.39" length="4.90" shape="281.70,601.95 282.38,603.30 282.32,604.24 281.54,604.76 280.03,604.86"/>
    </edge>
    <edge id=":1874416276_0" function="internal">
        <lane id=":1874416276_0_0" index="0" disallow="pedestrian tram rail_urban rail rail_electric rail_fast ship" speed="1.39" length="4.67" shape="517.94,479.76 519.34,480.09 520.00,480.70 519.90,481.59 519.06,482.76"/>
    </edge>
    <edge id=":1877629246_0" function="internal">
        <lane id=":1877629246_0_0" index="0" disallow="pedestrian tram rail_urban rail rail_electric rail_fast ship" speed="1.39" length="0.56" shape="429.06,392.73 429.04,392.57 429.03,392.45 429.02,392.34 429.02,392.17"/>
    </edge>
    <edge id=":1877629246_1" function="internal">
        <lane id=":1877629246_1_0" index="0" disallow="pedestrian tram rail_urban rail rail_electric rail_fast ship" speed="1.39" length="2.34" shape="429.06,392.73 429.69,391.43 430.42,390.92"/>
    </edge>
    <edge id=":1877629246_4" function="internal">
        <lane id=":1877629246_4_0" index="0" disallow="pedestrian tram rail_urban rail rail_electric rail_fast ship" speed="1.39" length="2.34" shape="430.42,390.92 431.27,391.20 432.23,392.28"/>
    </edge>
    <edge id=":1877629246_2" function="internal">
        <lane id=":1877629246_2_0" index="0" disallow="pedestrian tram rail_urban rail rail_electric rail_fast ship" speed="1.39" length="0.19" shape="432.21,392.09 432.22,392.15 432.22,392.19 432.22,392.22 432.23,392.28"/>
    </edge>
    <edge id=":1877629246_3" function="internal">